VERS 120928 17 30221
MODE SEQ
NAME AL1815-C  Ø18 mm, f=15 mm, NA=0.534, S-LAH64 Aspheric Lens, ARC: 1050-1620 nm
NOTE 0 FOR INFORMATION ONLY, NOT FOR MANUFACTURING.  ALL VALUES AND COATING(S) ARE TYPICAL AND THEORETICAL, ACTUAL PERFORMANCE MAY VARY.  FOR FURTHER INFORMATION CONTACT CUSTOMER SERVICE AT TECHSUPPORT@THORL
NOTE 0 ABS.COM
PFIL 0 0 0
UNIT MM X W X CM MR CPMM
ENPD 1.65E+1
ENVD 2.0E+1 1 1
GFAC 1 1
GCAT SCHOTT HOYA OHARA
RAIM 0 0 1 1 0 0 0 0 0
PUSH 0 0 0 0 0 0
SDMA 0 1 0
FTYP 0 0 1 1 0 0 0
ROPD 2
PICB 1
XFLN 0 0 0 0 0 0 0 0 0 0 0 0
YFLN 0 0 0 0 0 0 0 0 0 0 0 0
FWGN 1 0 0 0 0 0 0 0 0 0 0 0
VDXN 0 0 0 0 0 0 0 0 0 0 0 0
VDYN 0 0 0 0 0 0 0 0 0 0 0 0
VCXN 0 0 0 0 0 0 0 0 0 0 0 0
VCYN 0 0 0 0 0 0 0 0 0 0 0 0
VANN 0 0 0 0 0 0 0 0 0 0 0 0
WAVM 1 7.8E-1 1
WAVM 2 5.5E-1 1
WAVM 3 5.5E-1 1
WAVM 4 5.5E-1 1
WAVM 5 5.5E-1 1
WAVM 6 5.5E-1 1
WAVM 7 5.5E-1 1
WAVM 8 5.5E-1 1
WAVM 9 5.5E-1 1
WAVM 10 5.5E-1 1
WAVM 11 5.5E-1 1
WAVM 12 5.5E-1 1
WAVM 13 5.5E-1 1
WAVM 14 5.5E-1 1
WAVM 15 5.5E-1 1
WAVM 16 5.5E-1 1
WAVM 17 5.5E-1 1
WAVM 18 5.5E-1 1
WAVM 19 5.5E-1 1
WAVM 20 5.5E-1 1
WAVM 21 5.5E-1 1
WAVM 22 5.5E-1 1
WAVM 23 5.5E-1 1
WAVM 24 5.5E-1 1
PWAV 1
POLS 1 0 1 0 0 1 0
GLRS 3 0
GSTD 0 100.000 100.000 100.000 100.000 100.000 100.000 0 1 1 0 0 1 1 1 1 1 1
NSCD 100 500 0 1.0E-3 5 1.0E-6 0 0 0 0 0 0 1000000 0 2
COFN QF "COATINGTHOR.DAT" "SCATTER_PROFILE.DAT" "ABG_DATA.DAT" "PROFILE.GRD"
COFN COATINGTHOR.DAT SCATTER_PROFILE.DAT ABG_DATA.DAT PROFILE.GRD
SURF 0
  TYPE STANDARD
  CURV 0.0 0 0 0 0 ""
  HIDE 0 0 0 0 0 0 0 0 0 0
  MIRR 2 0
  SLAB 2
  DISZ INFINITY
  DIAM 0 0 0 0 1 ""
  POPS 0 0 0 0 0 0 0 0 1 1 1 1 0 0 0
SURF 1
  COMM AL1815-C
  STOP
  TYPE EVENASPH
  CURV 8.583690987124463500E-002 0 0 0 0 ""
  COAT THORC
  HIDE 0 0 0 0 0 0 0 0 0 0
  MIRR 2 0
  SLAB 3
  PARM 1 0
  PARM 2 3.69067205091E-5
  PARM 3 -1.285461192617E-8
  PARM 4 -1.400167659754E-10
  PARM 5 -2.51311664812E-13
  PARM 6 5.01789877647E-16
  PARM 7 5.855871513042E-18
  PARM 8 -1.127794407419E-20
  DISZ 6.2
  GLAS S-LAH64 0 0 0 0 0 0 0 0 0 0 
  CONI -1.1
  DIAM 9.0 1 0 0 1 ""
  POPS 0 0 0 0 0 0 0 0 1 1 1 1 0 0 0
  FLAP 0 9.0 0
SURF 2
  TYPE STANDARD
  CURV 0.0 0 0 0 0 ""
  COAT THORC
  HIDE 0 0 0 0 0 0 0 0 0 0
  MIRR 2 0
  SLAB 4
  DISZ 1.150668035421E+1
  DIAM 7.258157225112 0 0 0 1 ""
  POPS 0 0 0 0 0 0 0 0 1 1 1 1 0 0 0
  FLAP 0 7.258157225112 0
SURF 3
  TYPE STANDARD
  CURV 0.0 0 0 0 0 ""
  HIDE 0 0 0 0 0 0 0 0 0 0
  MIRR 2 0
  SLAB 1
  DISZ 0
  DIAM 1.028887908205E-8 0 0 0 1 ""
  POPS 0 0 0 0 0 0 0 0 1 1 1 1 0 0 0
BLNK 
TOL TOFF   0   0              0              0   0 0 0
MNUM 1 1
MOFF   0   1 "" 0 0 0 1 1 0 0.0 ""
