VERS 120928 0 30221
MODE SEQ
NAME LJ1598L1 - Plano-Convex Cylindrical Lens - N-BK7
NOTE 0 FOR INFORMATION ONLY, NOT FOR MANUFACTURING.  ALL VALUES AND COATING(S) ARE TYPICAL AND THEORETICAL, ACTUAL PERFORMANCE MAY VARY.  FOR FURTHER INFORMATION CONTACT CUSTOMER SERVICE AT TECHSUPPORT@THORL
NOTE 0 ABS.COM
PFIL 0 0 0
UNIT MM X W X CM MR CPMM
ENPD 3.2
ENVD 2.0E+1 1 0
GFAC 0 0
GCAT SCHOTT INFRARED MISC
RAIM 0 0 1 1 0 0 0 0 0
PUSH 0 0 0 0 0 0
SDMA 0 1 0
FTYP 0 0 1 3 0 0 0
ROPD 2
PICB 1
XFLN 0 0 0 0 0 0 0 0 0 0 0 0
YFLN 0 0 0 0 0 0 0 0 0 0 0 0
FWGN 1 0 0 0 0 0 0 0 0 0 0 0
VDXN 0 0 0 0 0 0 0 0 0 0 0 0
VDYN 0 0 0 0 0 0 0 0 0 0 0 0
VCXN 0 0 0 0 0 0 0 0 0 0 0 0
VCYN 0 0 0 0 0 0 0 0 0 0 0 0
VANN 0 0 0 0 0 0 0 0 0 0 0 0
WAVM 1 4.861E-1 1
WAVM 2 5.876E-1 1
WAVM 3 6.563E-1 1
WAVM 4 5.5E-1 1
WAVM 5 5.5E-1 1
WAVM 6 5.5E-1 1
WAVM 7 5.5E-1 1
WAVM 8 5.5E-1 1
WAVM 9 5.5E-1 1
WAVM 10 5.5E-1 1
WAVM 11 5.5E-1 1
WAVM 12 5.5E-1 1
WAVM 13 5.5E-1 1
WAVM 14 5.5E-1 1
WAVM 15 5.5E-1 1
WAVM 16 5.5E-1 1
WAVM 17 5.5E-1 1
WAVM 18 5.5E-1 1
WAVM 19 5.5E-1 1
WAVM 20 5.5E-1 1
WAVM 21 5.5E-1 1
WAVM 22 5.5E-1 1
WAVM 23 5.5E-1 1
WAVM 24 5.5E-1 1
PWAV 2
POLS 1 0 1 0 0 1 0
GLRS 1 0
GSTD 0 100.000 100.000 100.000 100.000 100.000 100.000 0 1 1 0 0 1 1 1 1 1 1
NSCD 100 500 0 1.0E-3 5 1.0E-6 0 0 0 0 0 0 1000000 0 2
COFN QF "COATINGTHOR.DAT" "SCATTER_PROFILE.DAT" "ABG_DATA.DAT" "PROFILE.GRD"
COFN COATINGTHOR.DAT SCATTER_PROFILE.DAT ABG_DATA.DAT PROFILE.GRD
SURF 0
  TYPE STANDARD
  CURV 0.0 0 0 0 0 ""
  HIDE 0 0 0 0 0 0 0 0 0 0
  MIRR 2 0
  SLAB 2
  DISZ INFINITY
  DIAM 0 0 0 0 1 ""
  POPS 0 0 0 0 0 0 0 0 1 1 1 1 0 0 0
SURF 1
  COMM LJ1598L1
  STOP
  TYPE TOROIDAL
  CURV 4.950495049504951000E-001 0 0 0 0 ""
  HIDE 0 0 0 0 0 0 0 0 0 0
  MIRR 2 0
  SLAB 3
  PARM 0 0
  PARM 1 0
  PARM 2 0
  PARM 3 0
  PARM 4 0
  PARM 5 0
  PARM 6 0
  PARM 7 0
  PARM 8 0
  XDAT 1 0.000000000000E+000 0 0 1.000000000000E+000 0.000000000000E+000 0 ""
  XDAT 2 1.000000000000E+002 0 0 1.000000000000E+000 0.000000000000E+000 0 ""
  DISZ 3.8
  GLAS N-BK7 0 0 0 0 0 0 0 0 0 0
  DIAM 2 1 0 0 1 ""
  POPS 0 0 0 0 0 0 0 0 1 1 1 1 0 0 0
  SQAP 3.0 2 0
SURF 2
  TYPE TOROIDAL
  CURV 0.0 0 0 0 0 ""
  HIDE 0 0 0 0 0 0 0 0 0 0
  MIRR 2 0
  SLAB 4
  PARM 0 0
  PARM 1 0
  PARM 2 0
  PARM 3 0
  PARM 4 0
  PARM 5 0
  PARM 6 0
  PARM 7 0
  PARM 8 0
  XDAT 1 0.000000000000E+000 0 0 1.000000000000E+000 0.000000000000E+000 0 ""
  XDAT 2 1.000000000000E+002 0 0 1.000000000000E+000 0.000000000000E+000 0 ""
  DISZ 1.035445081706
  DIAM 2 1 0 0 1 ""
  POPS 0 0 0 0 0 0 0 0 1 1 1 1 0 0 0
  SQAP 3.0 2 0
SURF 3
  TYPE STANDARD
  CURV 0.0 0 0 0 0 ""
  HIDE 0 0 0 0 0 0 0 0 0 0
  MIRR 2 0
  SLAB 1
  DISZ 0
  DIAM 2.336290250042E-1 0 0 0 1 ""
  POPS 0 0 0 0 0 0 0 0 1 1 1 1 0 0 0
BLNK
TOL TOFF   0   0              0              0   0 0 0
MNUM 1 1
MOFF   0   1 "" 0 0 0 1 1 0 0.0 ""